LAMMPS (3 Mar 2020)
# 3d Lennard-Jones melt

units		lj #reduced unit
atom_style	atomic

lattice		fcc 0.8442
Lattice spacing in x,y,z = 1.6796 1.6796 1.6796
region		box block 0 10 0 10 0 10  #defining the region of the block taken
create_box	1 box
Created orthogonal box = (0 0 0) to (16.796 16.796 16.796)

region      atombox block INF INF INF INF INF INF units box  #defining the region inside the block where the atom will be generated
create_atoms	1 random 512 534654 atombox  #atom created inside the defined region
Created 512 atoms

mass		1 1.0

velocity	all create 3.0 87287

pair_style	lj/cut 2.5
pair_coeff	1 1 1.0 1.0 2.5  # epsilon sigma and rcut is defined repectively

minimize  1.0e-4 1.0e-6 100 1000
  update every 1 steps, delay 0 steps, check yes
Step Temp E_pair E_mol TotEng Press
0            3      3048571            0    3048575.5    1317752.9
Loop time of 0.0302497 on 2 procs for 100 steps with 512 atoms

Minimization stats:
  Stopping criterion = max iterations
  Energy initial, next-to-last, final =
  Force two-norm initial, final = 8.57888e+10 36.9615
  Force max component initial, final = 4.35862e+10 9.91921
  Final line search alpha, max atom move = 0.0120262 0.11929
  Iterations, force evaluations = 100 192

neighbor	0.3 bin   #skin factor is taken to 0.3
neigh_modify	every 20 delay 0 check no
timestep 0.005
variable nthermo equal 1000
variable temp equal 0.7
variable tdamp equal 1.0
variable pext equal 1.0
variable pdamp equal 10.0
variable Nevery equal 1000
variable Nfreq equal 100
variable Nrepeat equal 100000
reset_timestep 0

#Using Npt to Calculate the rdf

fix 		intnpt all npt temp 0.7 0.7 1 iso 1 1 10
compute     rdfnpt all rdf 100 1 1
dump		id all atom 1000 out.dump.npt.lammpstrj
thermo		1000
thermo_style custom step pe ke etotal press temp vol density
restart 100000 restartnvt1.data restartnvt2.data
run		  200000
  update every 20 steps, delay 0 steps, check no
Step PotEng KinEng TotEng Press Temp Volume Density
0    -2.597473    4.4912109    1.8937379    0.2961114            3    4738.2137    0.1080576
Averages over the last 101 of 201 rows, steps 100000 to 200000:
PotEng KinEng TotEng Press Temp Volume Density
-5.74452 1.04811 -4.69641 1.01982 0.700107 596.49 0.858421
Loop time of 70.0672 on 2 procs for 200000 steps with 512 atoms

unfix   intnpt
undump  id

#Using Nvt to calculate the rdf

fix        intnvt all nvt temp 0.7 0.7 1
compute     rdfnvt all rdf 1000 1 1
fix rdfnvt all ave/time 1000 100000 100 c_rdfnvt[*] file systemnvt.rdf mode vector
ERROR: Illegal fix ave/time command (../fix_ave_time.cpp:142)
