LAMMPS (3 Mar 2020)
# 3d Lennard-Jones melt

# variable and loop commands for the epsilon loop

units		lj #reduced unit
atom_style	atomic

#lattice type is chosen as fcc
lattice		fcc 0.8442
Lattice spacing in x,y,z = 1.6796 1.6796 1.6796

#defining the region of the block taken
region		box block 0 12 0 12 0 12

#2 types of atom are used in the simulation
create_box	2 box
Created orthogonal box = (0 0 0) to (20.1552 20.1552 20.1552)

#defining the region to make nano particle
region      liq sphere 6 6 6 2     #speherical region is generated to create nanoparticle
create_atoms	1 region liq        # created noparticle inside the specified region
Created 141 atoms

#defining the region to fill the remaning space with other atom
region      liqbox sphere 6 6 6 2 side out #remaining space outside the sphere
create_atoms 2 region liqbox   #2nd type of atom created in the defined region
Created 6771 atoms

#masses defined for both atom type
mass		* 1.0

group   np type 1
141 atoms in group np
group   liq type 2
6771 atoms in group liq

velocity	liq create 1.0 87287

pair_style	lj/cut 3.5

#Setting the loop based on the epsilon
label       epsloop  #loop named as epsloop
variable    a loop 10   #loop parameter defined
variable    eps equal 0.5+($a-1)*0.5
variable    eps equal 0.5+(1-1)*0.5

#Seeting the pair coefficient for all types of interaction
pair_coeff	1 1 10.0 1.0 3.5  # epsilon sigma and rcut is defined repectively
pair_coeff	1 2 0.5 1.0 3.5
pair_coeff	2 2 0.8 1.0 3.5 # Use epsilon(nanoparticle)=10.0

minimize  1.0e-4 1.0e-6 100 1000
  update every 1 steps, delay 0 steps, check yes
Step Temp E_pair E_mol TotEng Press
0   0.97959774   -6.5333888            0   -5.0642048    -5.340646
Loop time of 0.0869904 on 2 procs for 5 steps with 6912 atoms

Minimization stats:
  Stopping criterion = energy tolerance
  Energy initial, next-to-last, final =
  Force two-norm initial, final = 718.609 171.522
  Force max component initial, final = 73.9714 14.048
  Final line search alpha, max atom move = 0.00574099 0.0806497
  Iterations, force evaluations = 5 9

neighbor	0.3 bin   #skin factor is taken to 0.3
neigh_modify	every 20 delay 0 check no
timestep 0.005
variable nthermo equal 1000
variable temp equal 1.0
variable tdamp equal 1.0
variable pext equal 1.0
variable pdamp equal 10.0
variable Nevery equal 1000
variable Nfreq equal 100000
variable Nrepeat equal 100
reset_timestep 0

#Using Npt to Calculate the rdf

fix 		intnpt all npt temp 1 1 1 iso 1 1 10
dump		id all atom 1000 out.dump.npt.0.5.lammpstrj
thermo		1000
thermo_style custom step pe ke etotal press temp vol density
restart 25000 restartnpt1.data restartnpt2.data
run		  50000
Step PotEng KinEng TotEng Press Temp Volume Density
0   -6.6832008     1.469184   -5.2140167   -4.5690318   0.97959774    8187.6333       0.8442
Averages over the last 26 of 51 rows, steps 25000 to 50000:
PotEng KinEng TotEng Press Temp Volume Density
-4.84534 1.50066 -3.34468 1.0243 1.00059 9526.43 0.725572
Loop time of 279.509 on 2 procs for 50000 steps with 6912 atoms

unfix   intnpt
undump  id

#Using Nvt to calculate the rdf

fix         intnvt all nvt temp 1 1 1
compute     rdfnvt all rdf 100 1 1 1 2 2 2
fix         rdfnvt all ave/time 1000 100 100000 c_rdfnvt[*] file systemnvt.rdf.0.5 mode vector ave window 2
dump        idnvt all atom 1000 out.dump.nvt.0.5.lammpstrj
thermo      1000
thermo_style custom step pe ke etotal press temp vol density
restart     100000 restartnvt1.data restartnvt2.data
run         200000
  update every 20 steps, delay 0 steps, check no
Step PotEng KinEng TotEng Press Temp Volume Density
50000    -4.846139    1.5042702   -3.3418687    1.0488838    1.0029919    9519.0187   0.72612526
Averages over the last 101 of 201 rows, steps 150000 to 250000:
PotEng KinEng TotEng Press Temp Volume Density
-4.85193 1.49563 -3.3563 1.00407 0.997231 9519.02 0.726125
Loop time of 1239.12 on 2 procs for 200000 steps with 6912 atoms

unfix       intnvt
uncompute   rdfnvt
unfix       rdfnvt
undump      idnvt

next      a
jump      in.melt epsloop
variable    a loop 10   #loop parameter defined
variable    eps equal 0.5+($a-1)*0.5
variable    eps equal 0.5+(2-1)*0.5

#Seeting the pair coefficient for all types of interaction
pair_coeff	1 1 10.0 1.0 3.5  # epsilon sigma and rcut is defined repectively
pair_coeff	1 2 1 1.0 3.5
pair_coeff	2 2 0.8 1.0 3.5 # Use epsilon(nanoparticle)=10.0

minimize  1.0e-4 1.0e-6 100 1000
  update every 1 steps, delay 0 steps, check yes
Step PotEng KinEng TotEng Press Temp Volume Density
250000   -4.8839811    1.5130189   -3.3709623   0.96382167    1.0088252    9519.0187   0.72612526
Loop time of 2.04876 on 2 procs for 100 steps with 6912 atoms

Minimization stats:
  Stopping criterion = max iterations
  Energy initial, next-to-last, final =
  Force two-norm initial, final = 2277.36 289.102
  Force max component initial, final = 201.141 60.7516
  Final line search alpha, max atom move = 0.00233757 0.142011
  Iterations, force evaluations = 100 195

neighbor	0.3 bin   #skin factor is taken to 0.3
neigh_modify	every 20 delay 0 check no
timestep 0.005
variable nthermo equal 1000
variable temp equal 1.0
variable tdamp equal 1.0
variable pext equal 1.0
variable pdamp equal 10.0
variable Nevery equal 1000
variable Nfreq equal 100000
variable Nrepeat equal 100
reset_timestep 0

#Using Npt to Calculate the rdf

fix 		intnpt all npt temp 1 1 1 iso 1 1 10
dump		id all atom 1000 out.dump.npt.1.lammpstrj
thermo		1000
thermo_style custom step pe ke etotal press temp vol density
restart 25000 restartnpt1.data restartnpt2.data
run		  50000
Step PotEng KinEng TotEng Press Temp Volume Density
0   -6.0014056    1.5130189   -4.4883867   -1.4217359    1.0088252    9519.0187   0.72612526
Averages over the last 26 of 51 rows, steps 25000 to 50000:
PotEng KinEng TotEng Press Temp Volume Density
-4.89335 1.50282 -3.39053 0.988247 1.00202 9498.68 0.727687
Loop time of 303.385 on 2 procs for 50000 steps with 6912 atoms

unfix   intnpt
undump  id

#Using Nvt to calculate the rdf

fix         intnvt all nvt temp 1 1 1
compute     rdfnvt all rdf 100 1 1 1 2 2 2
fix         rdfnvt all ave/time 1000 100 100000 c_rdfnvt[*] file systemnvt.rdf.1 mode vector ave window 2
dump        idnvt all atom 1000 out.dump.nvt.1.lammpstrj
thermo      1000
thermo_style custom step pe ke etotal press temp vol density
restart     100000 restartnvt1.data restartnvt2.data
run         200000
  update every 20 steps, delay 0 steps, check no
Step PotEng KinEng TotEng Press Temp Volume Density
50000   -4.8918547     1.495473   -3.3963817   0.96506899   0.99712625    9530.5411   0.72524738
Averages over the last 101 of 201 rows, steps 150000 to 250000:
PotEng KinEng TotEng Press Temp Volume Density
-4.88332 1.49819 -3.38513 0.978762 0.99894 9530.54 0.725247
Loop time of 1138.65 on 2 procs for 200000 steps with 6912 atoms

unfix       intnvt
uncompute   rdfnvt
unfix       rdfnvt
undump      idnvt

next      a
jump      in.melt epsloop
variable    a loop 10   #loop parameter defined
variable    eps equal 0.5+($a-1)*0.5
variable    eps equal 0.5+(3-1)*0.5

#Seeting the pair coefficient for all types of interaction
pair_coeff	1 1 10.0 1.0 3.5  # epsilon sigma and rcut is defined repectively
pair_coeff	1 2 1.5 1.0 3.5
pair_coeff	2 2 0.8 1.0 3.5 # Use epsilon(nanoparticle)=10.0

minimize  1.0e-4 1.0e-6 100 1000
  update every 1 steps, delay 0 steps, check yes
Step PotEng KinEng TotEng Press Temp Volume Density
250000   -4.9028267    1.5042344   -3.3985923    1.0029093    1.0029681    9530.5411   0.72524738
Loop time of 2.25822 on 2 procs for 100 steps with 6912 atoms

Minimization stats:
  Stopping criterion = max iterations
  Energy initial, next-to-last, final =
  Force two-norm initial, final = 2308.51 257.246
  Force max component initial, final = 196.415 45.836
  Final line search alpha, max atom move = 0.00237078 0.108667
  Iterations, force evaluations = 100 196

neighbor	0.3 bin   #skin factor is taken to 0.3
neigh_modify	every 20 delay 0 check no
timestep 0.005
variable nthermo equal 1000
variable temp equal 1.0
variable tdamp equal 1.0
variable pext equal 1.0
variable pdamp equal 10.0
variable Nevery equal 1000
variable Nfreq equal 100000
variable Nrepeat equal 100
reset_timestep 0

#Using Npt to Calculate the rdf

fix 		intnpt all npt temp 1 1 1 iso 1 1 10
dump		id all atom 1000 out.dump.npt.1.5.lammpstrj
thermo		1000
thermo_style custom step pe ke etotal press temp vol density
restart 25000 restartnpt1.data restartnpt2.data
run		  50000
Step PotEng KinEng TotEng Press Temp Volume Density
0    -6.032323    1.5042344   -4.5280886   -1.4506858    1.0029681    9530.5411   0.72524738
Averages over the last 26 of 51 rows, steps 25000 to 50000:
PotEng KinEng TotEng Press Temp Volume Density
-4.9487 1.50024 -3.44845 0.996901 1.00031 9476.99 0.729358
Loop time of 338.842 on 2 procs for 50000 steps with 6912 atoms

unfix   intnpt
undump  id

#Using Nvt to calculate the rdf

fix         intnvt all nvt temp 1 1 1
compute     rdfnvt all rdf 100 1 1 1 2 2 2
fix         rdfnvt all ave/time 1000 100 100000 c_rdfnvt[*] file systemnvt.rdf.1.5 mode vector ave window 2
dump        idnvt all atom 1000 out.dump.nvt.1.5.lammpstrj
thermo      1000
thermo_style custom step pe ke etotal press temp vol density
restart     100000 restartnvt1.data restartnvt2.data
run         200000
  update every 20 steps, delay 0 steps, check no
Step PotEng KinEng TotEng Press Temp Volume Density
50000   -4.9553672    1.4772298   -3.4781374   0.92445075   0.98496234    9472.9286   0.72965819
Averages over the last 101 of 201 rows, steps 150000 to 250000:
PotEng KinEng TotEng Press Temp Volume Density
-4.94905 1.49727 -3.45177 0.9988 0.998326 9472.93 0.729658
Loop time of 1372.5 on 2 procs for 200000 steps with 6912 atoms

unfix       intnvt
uncompute   rdfnvt
unfix       rdfnvt
undump      idnvt

next      a
jump      in.melt epsloop
variable    a loop 10   #loop parameter defined
variable    eps equal 0.5+($a-1)*0.5
variable    eps equal 0.5+(4-1)*0.5

#Seeting the pair coefficient for all types of interaction
pair_coeff	1 1 10.0 1.0 3.5  # epsilon sigma and rcut is defined repectively
pair_coeff	1 2 2 1.0 3.5
pair_coeff	2 2 0.8 1.0 3.5 # Use epsilon(nanoparticle)=10.0

minimize  1.0e-4 1.0e-6 100 1000
  update every 1 steps, delay 0 steps, check yes
Step PotEng KinEng TotEng Press Temp Volume Density
250000   -4.9942576    1.5035385   -3.4907191    1.0214468     1.002504    9472.9286   0.72965819
Loop time of 1.99455 on 2 procs for 100 steps with 6912 atoms

Minimization stats:
  Stopping criterion = max iterations
  Energy initial, next-to-last, final =
  Force two-norm initial, final = 2316.58 278.185
  Force max component initial, final = 185.807 59.9142
  Final line search alpha, max atom move = 0.00180317 0.108035
  Iterations, force evaluations = 100 196

neighbor	0.3 bin   #skin factor is taken to 0.3
neigh_modify	every 20 delay 0 check no
timestep 0.005
variable nthermo equal 1000
variable temp equal 1.0
variable tdamp equal 1.0
variable pext equal 1.0
variable pdamp equal 10.0
variable Nevery equal 1000
variable Nfreq equal 100000
variable Nrepeat equal 100
reset_timestep 0

#Using Npt to Calculate the rdf

fix 		intnpt all npt temp 1 1 1 iso 1 1 10
dump		id all atom 1000 out.dump.npt.2.lammpstrj
thermo		1000
thermo_style custom step pe ke etotal press temp vol density
restart 25000 restartnpt1.data restartnpt2.data
run		  50000
Step PotEng KinEng TotEng Press Temp Volume Density
0   -6.1080206    1.5035385   -4.6044821   -1.4342572     1.002504    9472.9286   0.72965819
Averages over the last 26 of 51 rows, steps 25000 to 50000:
PotEng KinEng TotEng Press Temp Volume Density
-5.00731 1.49917 -3.50814 0.979492 0.999593 9466.31 0.730182
Loop time of 284.359 on 2 procs for 50000 steps with 6912 atoms

unfix   intnpt
undump  id

#Using Nvt to calculate the rdf

fix         intnvt all nvt temp 1 1 1
compute     rdfnvt all rdf 100 1 1 1 2 2 2
fix         rdfnvt all ave/time 1000 100 100000 c_rdfnvt[*] file systemnvt.rdf.2 mode vector ave window 2
dump        idnvt all atom 1000 out.dump.nvt.2.lammpstrj
thermo      1000
thermo_style custom step pe ke etotal press temp vol density
restart     100000 restartnvt1.data restartnvt2.data
run         200000
  update every 20 steps, delay 0 steps, check no
Step PotEng KinEng TotEng Press Temp Volume Density
50000   -5.0016773    1.5006602   -3.5010171   0.92962899    1.0005849    9498.8263   0.72766885
Averages over the last 101 of 201 rows, steps 150000 to 250000:
PotEng KinEng TotEng Press Temp Volume Density
-4.98941 1.49842 -3.491 0.972494 0.999089 9498.83 0.727669
Loop time of 1192.83 on 2 procs for 200000 steps with 6912 atoms

unfix       intnvt
uncompute   rdfnvt
unfix       rdfnvt
undump      idnvt

next      a
jump      in.melt epsloop
variable    a loop 10   #loop parameter defined
variable    eps equal 0.5+($a-1)*0.5
variable    eps equal 0.5+(5-1)*0.5
variable eps equal 2.0+($a-4)*2.0
variable eps equal 2.0+(5-4)*2.0

#Seeting the pair coefficient for all types of interaction
pair_coeff	1 1 10.0 1.0 3.5  # epsilon sigma and rcut is defined repectively
pair_coeff	1 2 4 1.0 3.5
pair_coeff	2 2 0.8 1.0 3.5 # Use epsilon(nanoparticle)=10.0

minimize  1.0e-4 1.0e-6 100 1000
  update every 1 steps, delay 0 steps, check yes
Step PotEng KinEng TotEng Press Temp Volume Density
250000   -5.1843365    1.5026751   -3.6816615   0.85904926    1.0019283    9498.8263   0.72766885
Loop time of 3.02247 on 2 procs for 100 steps with 6912 atoms

Minimization stats:
  Stopping criterion = max iterations
  Energy initial, next-to-last, final =
  Force two-norm initial, final = 2296.15 266.877
  Force max component initial, final = 182.807 45.7547
  Final line search alpha, max atom move = 0.00183412 0.0839198
  Iterations, force evaluations = 100 197

neighbor	0.3 bin   #skin factor is taken to 0.3
neigh_modify	every 20 delay 0 check no
timestep 0.005
variable nthermo equal 1000
variable temp equal 1.0
variable tdamp equal 1.0
variable pext equal 1.0
variable pdamp equal 10.0
variable Nevery equal 1000
variable Nfreq equal 100000
variable Nrepeat equal 100
reset_timestep 0

#Using Npt to Calculate the rdf

fix 		intnpt all npt temp 1 1 1 iso 1 1 10
dump		id all atom 1000 out.dump.npt.4.lammpstrj
thermo		1000
thermo_style custom step pe ke etotal press temp vol density
restart 25000 restartnpt1.data restartnpt2.data
run		  50000
Step PotEng KinEng TotEng Press Temp Volume Density
0   -6.3119278    1.5026751   -4.8092527   -1.4339351    1.0019283    9498.8263   0.72766885
Averages over the last 26 of 51 rows, steps 25000 to 50000:
PotEng KinEng TotEng Press Temp Volume Density
-5.2336 1.49657 -3.73703 1.01989 0.997858 9412.83 0.73433
Loop time of 495.157 on 2 procs for 50000 steps with 6912 atoms

unfix   intnpt
undump  id

#Using Nvt to calculate the rdf

fix         intnvt all nvt temp 1 1 1
compute     rdfnvt all rdf 100 1 1 1 2 2 2
fix         rdfnvt all ave/time 1000 100 100000 c_rdfnvt[*] file systemnvt.rdf.4 mode vector ave window 2
dump        idnvt all atom 1000 out.dump.nvt.4.lammpstrj
thermo      1000
thermo_style custom step pe ke etotal press temp vol density
restart     100000 restartnvt1.data restartnvt2.data
run         200000
  update every 20 steps, delay 0 steps, check no
Step PotEng KinEng TotEng Press Temp Volume Density
50000   -5.2194602    1.4967956   -3.7226646    1.0515639   0.99800815    9427.8775   0.73314487
Averages over the last 101 of 201 rows, steps 150000 to 250000:
PotEng KinEng TotEng Press Temp Volume Density
-5.23401 1.49717 -3.73684 0.990025 0.998261 9427.88 0.733145
Loop time of 1874.65 on 2 procs for 200000 steps with 6912 atoms

unfix       intnvt
uncompute   rdfnvt
unfix       rdfnvt
undump      idnvt

next      a
jump      in.melt epsloop
variable    a loop 10   #loop parameter defined
variable    eps equal 0.5+($a-1)*0.5
variable    eps equal 0.5+(6-1)*0.5
variable eps equal 2.0+($a-4)*2.0
variable eps equal 2.0+(6-4)*2.0

#Seeting the pair coefficient for all types of interaction
pair_coeff	1 1 10.0 1.0 3.5  # epsilon sigma and rcut is defined repectively
pair_coeff	1 2 6 1.0 3.5
pair_coeff	2 2 0.8 1.0 3.5 # Use epsilon(nanoparticle)=10.0

minimize  1.0e-4 1.0e-6 100 1000
  update every 1 steps, delay 0 steps, check yes
Step PotEng KinEng TotEng Press Temp Volume Density
250000   -5.4141012    1.5327591   -3.8813421    1.0158585    1.0219873    9427.8775   0.73314487
Loop time of 2.80347 on 2 procs for 100 steps with 6912 atoms

Minimization stats:
  Stopping criterion = max iterations
  Energy initial, next-to-last, final =
  Force two-norm initial, final = 2422.54 277.754
  Force max component initial, final = 172.44 42.9852
  Final line search alpha, max atom move = 0.00195156 0.0838883
  Iterations, force evaluations = 100 196

neighbor	0.3 bin   #skin factor is taken to 0.3
neigh_modify	every 20 delay 0 check no
timestep 0.005
variable nthermo equal 1000
variable temp equal 1.0
variable tdamp equal 1.0
variable pext equal 1.0
variable pdamp equal 10.0
variable Nevery equal 1000
variable Nfreq equal 100000
variable Nrepeat equal 100
reset_timestep 0

#Using Npt to Calculate the rdf

fix 		intnpt all npt temp 1 1 1 iso 1 1 10
dump		id all atom 1000 out.dump.npt.6.lammpstrj
thermo		1000
thermo_style custom step pe ke etotal press temp vol density
restart 25000 restartnpt1.data restartnpt2.data
run		  50000
Step PotEng KinEng TotEng Press Temp Volume Density
0   -6.5815231    1.5327591    -5.048764   -1.4484228    1.0219873    9427.8775   0.73314487
Averages over the last 26 of 51 rows, steps 25000 to 50000:
PotEng KinEng TotEng Press Temp Volume Density
-5.46777 1.49512 -3.97265 0.946654 0.996889 9399.54 0.735372
Loop time of 452.343 on 2 procs for 50000 steps with 6912 atoms

unfix   intnpt
undump  id

#Using Nvt to calculate the rdf

fix         intnvt all nvt temp 1 1 1
compute     rdfnvt all rdf 100 1 1 1 2 2 2
fix         rdfnvt all ave/time 1000 100 100000 c_rdfnvt[*] file systemnvt.rdf.6 mode vector ave window 2
dump        idnvt all atom 1000 out.dump.nvt.6.lammpstrj
thermo      1000
thermo_style custom step pe ke etotal press temp vol density
restart     100000 restartnvt1.data restartnvt2.data
run         200000
  update every 20 steps, delay 0 steps, check no
Step PotEng KinEng TotEng Press Temp Volume Density
50000   -5.4752934    1.5101777   -3.9651158   0.93764448    1.0069308    9383.7105   0.73659561
Averages over the last 101 of 201 rows, steps 150000 to 250000:
PotEng KinEng TotEng Press Temp Volume Density
-5.46923 1.50075 -3.96848 1.00043 1.00065 9383.71 0.736596
Loop time of 1871.59 on 2 procs for 200000 steps with 6912 atoms

unfix       intnvt
uncompute   rdfnvt
unfix       rdfnvt
undump      idnvt

next      a
jump      in.melt epsloop
variable    a loop 10   #loop parameter defined
variable    eps equal 0.5+($a-1)*0.5
variable    eps equal 0.5+(7-1)*0.5
variable eps equal 2.0+($a-4)*2.0
variable eps equal 2.0+(7-4)*2.0

#Seeting the pair coefficient for all types of interaction
pair_coeff	1 1 10.0 1.0 3.5  # epsilon sigma and rcut is defined repectively
pair_coeff	1 2 8 1.0 3.5
pair_coeff	2 2 0.8 1.0 3.5 # Use epsilon(nanoparticle)=10.0

minimize  1.0e-4 1.0e-6 100 1000
  update every 1 steps, delay 0 steps, check yes
Step PotEng KinEng TotEng Press Temp Volume Density
250000   -5.6833968    1.4921063   -4.1912905   0.93514184   0.99488145    9383.7105   0.73659561
Loop time of 2.88119 on 2 procs for 100 steps with 6912 atoms

Minimization stats:
  Stopping criterion = max iterations
  Energy initial, next-to-last, final =
  Force two-norm initial, final = 2431.04 264.393
  Force max component initial, final = 187.871 32.1968
  Final line search alpha, max atom move = 0.00157492 0.0507074
  Iterations, force evaluations = 100 198

neighbor	0.3 bin   #skin factor is taken to 0.3
neigh_modify	every 20 delay 0 check no
timestep 0.005
variable nthermo equal 1000
variable temp equal 1.0
variable tdamp equal 1.0
variable pext equal 1.0
variable pdamp equal 10.0
variable Nevery equal 1000
variable Nfreq equal 100000
variable Nrepeat equal 100
reset_timestep 0

#Using Npt to Calculate the rdf

fix 		intnpt all npt temp 1 1 1 iso 1 1 10
dump		id all atom 1000 out.dump.npt.8.lammpstrj
thermo		1000
thermo_style custom step pe ke etotal press temp vol density
restart 25000 restartnpt1.data restartnpt2.data
run		  50000
Step PotEng KinEng TotEng Press Temp Volume Density
0   -6.8165556    1.4921063   -5.3244493    -1.444784   0.99488145    9383.7105   0.73659561
Averages over the last 26 of 51 rows, steps 25000 to 50000:
PotEng KinEng TotEng Press Temp Volume Density
-5.6906 1.49624 -4.19436 1.02543 0.997638 9372.63 0.737479
Loop time of 460.999 on 2 procs for 50000 steps with 6912 atoms

unfix   intnpt
undump  id

#Using Nvt to calculate the rdf

fix         intnvt all nvt temp 1 1 1
compute     rdfnvt all rdf 100 1 1 1 2 2 2
fix         rdfnvt all ave/time 1000 100 100000 c_rdfnvt[*] file systemnvt.rdf.8 mode vector ave window 2
dump        idnvt all atom 1000 out.dump.nvt.8.lammpstrj
thermo      1000
thermo_style custom step pe ke etotal press temp vol density
restart     100000 restartnvt1.data restartnvt2.data
run         200000
  update every 20 steps, delay 0 steps, check no
Step PotEng KinEng TotEng Press Temp Volume Density
50000   -5.6839174    1.5140777   -4.1698397    1.1349581    1.0095312     9371.781   0.73753324
Averages over the last 101 of 201 rows, steps 150000 to 250000:
PotEng KinEng TotEng Press Temp Volume Density
-5.69265 1.50136 -4.19129 1.00037 1.00105 9371.78 0.737533
Loop time of 1172.38 on 2 procs for 200000 steps with 6912 atoms

unfix       intnvt
uncompute   rdfnvt
unfix       rdfnvt
undump      idnvt

next      a
jump      in.melt epsloop
variable    a loop 10   #loop parameter defined
variable    eps equal 0.5+($a-1)*0.5
variable    eps equal 0.5+(8-1)*0.5
variable eps equal 2.0+($a-4)*2.0
variable eps equal 2.0+(8-4)*2.0

#Seeting the pair coefficient for all types of interaction
pair_coeff	1 1 10.0 1.0 3.5  # epsilon sigma and rcut is defined repectively
pair_coeff	1 2 10 1.0 3.5
pair_coeff	2 2 0.8 1.0 3.5 # Use epsilon(nanoparticle)=10.0

minimize  1.0e-4 1.0e-6 100 1000
  update every 1 steps, delay 0 steps, check yes
Step PotEng KinEng TotEng Press Temp Volume Density
250000   -5.8975229    1.4787649    -4.418758   0.93821029   0.98598594     9371.781   0.73753324
Loop time of 2.04043 on 2 procs for 100 steps with 6912 atoms

Minimization stats:
  Stopping criterion = max iterations
  Energy initial, next-to-last, final =
  Force two-norm initial, final = 2500.84 257.135
  Force max component initial, final = 220.524 34.842
  Final line search alpha, max atom move = 0.00209503 0.0729951
  Iterations, force evaluations = 100 195

neighbor	0.3 bin   #skin factor is taken to 0.3
neigh_modify	every 20 delay 0 check no
timestep 0.005
variable nthermo equal 1000
variable temp equal 1.0
variable tdamp equal 1.0
variable pext equal 1.0
variable pdamp equal 10.0
variable Nevery equal 1000
variable Nfreq equal 100000
variable Nrepeat equal 100
reset_timestep 0

#Using Npt to Calculate the rdf

fix 		intnpt all npt temp 1 1 1 iso 1 1 10
dump		id all atom 1000 out.dump.npt.10.lammpstrj
thermo		1000
thermo_style custom step pe ke etotal press temp vol density
restart 25000 restartnpt1.data restartnpt2.data
run		  50000
Step PotEng KinEng TotEng Press Temp Volume Density
0   -7.0552169    1.4787649    -5.576452   -1.5078243   0.98598594     9371.781   0.73753324
Averages over the last 26 of 51 rows, steps 25000 to 50000:
PotEng KinEng TotEng Press Temp Volume Density
-5.92774 1.50098 -4.42676 1.01911 1.0008 9344.31 0.739711
Loop time of 438.983 on 2 procs for 50000 steps with 6912 atoms

unfix   intnpt
undump  id

#Using Nvt to calculate the rdf

fix         intnvt all nvt temp 1 1 1
compute     rdfnvt all rdf 100 1 1 1 2 2 2
fix         rdfnvt all ave/time 1000 100 100000 c_rdfnvt[*] file systemnvt.rdf.10 mode vector ave window 2
dump        idnvt all atom 1000 out.dump.nvt.10.lammpstrj
thermo      1000
thermo_style custom step pe ke etotal press temp vol density
restart     100000 restartnvt1.data restartnvt2.data
run         200000
  update every 20 steps, delay 0 steps, check no
Step PotEng KinEng TotEng Press Temp Volume Density
50000    -5.917748    1.4813655   -4.4363825   0.98751271   0.98771989    9346.7957   0.73950477
Averages over the last 101 of 201 rows, steps 150000 to 250000:
PotEng KinEng TotEng Press Temp Volume Density
-5.93152 1.49828 -4.43324 0.999769 0.999001 9346.8 0.739505
Loop time of 1789.65 on 2 procs for 200000 steps with 6912 atoms

unfix       intnvt
uncompute   rdfnvt
unfix       rdfnvt
undump      idnvt

next      a
jump      in.melt epsloop
variable    a loop 10   #loop parameter defined
variable    eps equal 0.5+($a-1)*0.5
variable    eps equal 0.5+(9-1)*0.5
variable eps equal 2.0+($a-4)*2.0
variable eps equal 2.0+(9-4)*2.0

#Seeting the pair coefficient for all types of interaction
pair_coeff	1 1 10.0 1.0 3.5  # epsilon sigma and rcut is defined repectively
pair_coeff	1 2 12 1.0 3.5
pair_coeff	2 2 0.8 1.0 3.5 # Use epsilon(nanoparticle)=10.0

minimize  1.0e-4 1.0e-6 100 1000
  update every 1 steps, delay 0 steps, check yes
Step PotEng KinEng TotEng Press Temp Volume Density
250000   -6.1306588    1.4984961   -4.6321627   0.98905532   0.99914194    9346.7957   0.73950477
Loop time of 2.8542 on 2 procs for 100 steps with 6912 atoms

Minimization stats:
  Stopping criterion = max iterations
  Energy initial, next-to-last, final =
  Force two-norm initial, final = 2624 280.717
  Force max component initial, final = 204.365 46.2341
  Final line search alpha, max atom move = 0.00167524 0.0774534
  Iterations, force evaluations = 100 200

neighbor	0.3 bin   #skin factor is taken to 0.3
neigh_modify	every 20 delay 0 check no
timestep 0.005
variable nthermo equal 1000
variable temp equal 1.0
variable tdamp equal 1.0
variable pext equal 1.0
variable pdamp equal 10.0
variable Nevery equal 1000
variable Nfreq equal 100000
variable Nrepeat equal 100
reset_timestep 0

#Using Npt to Calculate the rdf

fix 		intnpt all npt temp 1 1 1 iso 1 1 10
dump		id all atom 1000 out.dump.npt.12.lammpstrj
thermo		1000
thermo_style custom step pe ke etotal press temp vol density
restart 25000 restartnpt1.data restartnpt2.data
run		  50000
Step PotEng KinEng TotEng Press Temp Volume Density
0    -7.285434    1.4984961   -5.7869379   -1.5074861   0.99914194    9346.7957   0.73950477
Averages over the last 26 of 51 rows, steps 25000 to 50000:
PotEng KinEng TotEng Press Temp Volume Density
-6.17537 1.49898 -4.67639 0.99267 0.999466 9332.17 0.740677
Loop time of 470.126 on 2 procs for 50000 steps with 6912 atoms

unfix   intnpt
undump  id

#Using Nvt to calculate the rdf

fix         intnvt all nvt temp 1 1 1
compute     rdfnvt all rdf 100 1 1 1 2 2 2
fix         rdfnvt all ave/time 1000 100 100000 c_rdfnvt[*] file systemnvt.rdf.12 mode vector ave window 2
dump        idnvt all atom 1000 out.dump.nvt.12.lammpstrj
thermo      1000
thermo_style custom step pe ke etotal press temp vol density
restart     100000 restartnvt1.data restartnvt2.data
run         200000
  update every 20 steps, delay 0 steps, check no
Step PotEng KinEng TotEng Press Temp Volume Density
50000   -6.1609628    1.5174961   -4.6434667    1.0619253    1.0118105    9343.9579   0.73972936
Averages over the last 101 of 201 rows, steps 150000 to 250000:
PotEng KinEng TotEng Press Temp Volume Density
-6.1696 1.49995 -4.66966 0.988457 1.00011 9343.96 0.739729
Loop time of 1163.35 on 2 procs for 200000 steps with 6912 atoms

unfix       intnvt
uncompute   rdfnvt
unfix       rdfnvt
undump      idnvt

next      a
jump      in.melt epsloop
variable    a loop 10   #loop parameter defined
variable    eps equal 0.5+($a-1)*0.5
variable    eps equal 0.5+(10-1)*0.5
variable eps equal 2.0+($a-4)*2.0
variable eps equal 2.0+(10-4)*2.0

#Seeting the pair coefficient for all types of interaction
pair_coeff	1 1 10.0 1.0 3.5  # epsilon sigma and rcut is defined repectively
pair_coeff	1 2 14 1.0 3.5
pair_coeff	2 2 0.8 1.0 3.5 # Use epsilon(nanoparticle)=10.0

minimize  1.0e-4 1.0e-6 100 1000
  update every 1 steps, delay 0 steps, check yes
Step PotEng KinEng TotEng Press Temp Volume Density
250000    -6.402774    1.5219845   -4.8807895   0.95512988    1.0148032    9343.9579   0.73972936
Loop time of 1.44539 on 2 procs for 100 steps with 6912 atoms

Minimization stats:
  Stopping criterion = max iterations
  Energy initial, next-to-last, final =
  Force two-norm initial, final = 2584.72 270.983
  Force max component initial, final = 213.262 76.9992
  Final line search alpha, max atom move = 0.00165775 0.127646
  Iterations, force evaluations = 100 200

neighbor	0.3 bin   #skin factor is taken to 0.3
neigh_modify	every 20 delay 0 check no
timestep 0.005
variable nthermo equal 1000
variable temp equal 1.0
variable tdamp equal 1.0
variable pext equal 1.0
variable pdamp equal 10.0
variable Nevery equal 1000
variable Nfreq equal 100000
variable Nrepeat equal 100
reset_timestep 0

#Using Npt to Calculate the rdf

fix 		intnpt all npt temp 1 1 1 iso 1 1 10
dump		id all atom 1000 out.dump.npt.14.lammpstrj
thermo		1000
thermo_style custom step pe ke etotal press temp vol density
restart 25000 restartnpt1.data restartnpt2.data
run		  50000
Step PotEng KinEng TotEng Press Temp Volume Density
0   -7.5003548    1.5219845   -5.9783703   -1.5532272    1.0148032    9343.9579   0.73972936
Averages over the last 26 of 51 rows, steps 25000 to 50000:
PotEng KinEng TotEng Press Temp Volume Density
-8.26007 1.4912 -6.76886 0.981298 0.99428 9040.62 0.764558
Loop time of 303.101 on 2 procs for 50000 steps with 6912 atoms

unfix   intnpt
undump  id

#Using Nvt to calculate the rdf

fix         intnvt all nvt temp 1 1 1
compute     rdfnvt all rdf 100 1 1 1 2 2 2
fix         rdfnvt all ave/time 1000 100 100000 c_rdfnvt[*] file systemnvt.rdf.14 mode vector ave window 2
dump        idnvt all atom 1000 out.dump.nvt.14.lammpstrj
thermo      1000
thermo_style custom step pe ke etotal press temp vol density
restart     100000 restartnvt1.data restartnvt2.data
run         200000
  update every 20 steps, delay 0 steps, check no
Step PotEng KinEng TotEng Press Temp Volume Density
50000   -8.3510037    1.4876497    -6.863354    1.0280122      0.99191    8983.3756   0.76942124
Averages over the last 101 of 201 rows, steps 150000 to 250000:
PotEng KinEng TotEng Press Temp Volume Density
-8.45727 1.50125 -6.95601 1.00972 1.00098 8983.38 0.769421
Loop time of 1257.12 on 2 procs for 200000 steps with 6912 atoms

unfix       intnvt
uncompute   rdfnvt
unfix       rdfnvt
undump      idnvt

next      a
jump      in.melt epsloop
