LAMMPS (3 Mar 2020)
# 3d Lennard-Jones melt

units		lj #reduced unit
atom_style	atomic

lattice		fcc 0.8442
Lattice spacing in x,y,z = 1.6796 1.6796 1.6796
region		box block 0 10 0 10 0 10  #defining the region of the block taken
create_box	1 box
Created orthogonal box = (0 0 0) to (16.796 16.796 16.796)

create_atoms	1 box
Created 4000 atoms

mass		1 1.0

velocity	all create 3.0 87287

pair_style	lj/cut 3.5
pair_coeff	1 1 1.0 1.0 3.5  # epsilon sigma and rcut is defined repectively

minimize  1.0e-4 1.0e-6 100 1000
  update every 1 steps, delay 0 steps, check yes
Step Temp E_pair E_mol TotEng Press
0            3   -7.0441381            0   -2.5452631   -4.1596017
Loop time of 0.0126675 on 2 procs for 1 steps with 4000 atoms

Minimization stats:
  Stopping criterion = energy tolerance
  Energy initial, next-to-last, final =
  Force two-norm initial, final = 3.87217e-12 2.55733e-12
  Force max component initial, final = 9.61106e-14 5.19194e-14
  Final line search alpha, max atom move = 1 5.19194e-14
  Iterations, force evaluations = 1 2

neighbor	0.3 bin   #skin factor is taken to 0.3
neigh_modify	every 20 delay 0 check no
timestep 0.005
variable nthermo  equal 1000
variable tdamp    equal 1.0
variable pext     equal 1.0
variable pdamp    equal 10.0
variable Nevery   equal 1000
variable Nfreq    equal 100000
variable Nrepeat  equal 100
reset_timestep 0

#Using Npt to Calculate the rdf
label       temploop  #loop named as temploop
variable    a loop 11   #loop parameter defined
variable    temp equal 0.3+($a-1)*0.1   #temp value will increase at rate of 0.1 from 0.3 till 1.3
variable    temp equal 0.3+(1-1)*0.1

thermo		1000
thermo_style custom step pe ke etotal press temp vol density
dump		id all atom 1000 out.dump.npt.lammpstrj
restart 100000 restartnvt1.data restartnvt2.data

fix 		intnpt all npt temp 0.3 0.3 1 iso 1 1 10
run		  100000
Step PotEng KinEng TotEng Press Temp Volume Density
0   -7.0441381     4.498875   -2.5452631   -4.1596017            3    4738.2137       0.8442
Averages over the last 51 of 101 rows, steps 50000 to 100000:
PotEng KinEng TotEng Press Temp Volume Density
-7.42955 0.451009 -6.97854 1.00791 0.300748 3958.49 1.01057
Loop time of 403.565 on 2 procs for 100000 steps with 4000 atoms

unfix   intnpt
undump  id

#Using Nvt to calculate the rdf and msd
compute   msd all msd average yes
compute   rdfnvt all rdf 100 1 1
fix       rdfnvt all ave/time 1000 100 100000 c_rdfnvt[*] file systemnvt.rdf mode vector
thermo    1000
thermo_style custom step pe ke etotal press temp vol c_msd[4]
dump      idnvt all atom 1000 out.dump.nvt.lammpstrj
restart   100000 restartnpt1.data restartnp2.data

fix       intnvt all nvt temp 0.3 0.3 1
run       400000
  update every 20 steps, delay 0 steps, check no
Step PotEng KinEng TotEng Press Temp Volume c_msd[4]
100000   -7.5687862    0.4475296   -7.1212566    1.0108008   0.29842767     3911.672            0
Averages over the last 201 of 401 rows, steps 300000 to 500000:
PotEng KinEng TotEng Press Temp Volume c_msd[4]
-7.76634 0.450203 -7.31614 -0.12455 0.300211 3911.67 0.0452161
Loop time of 1615.51 on 2 procs for 400000 steps with 4000 atoms

unfix     intnvt
unfix     rdfnvt
uncompute rdfnvt
uncompute msd
undump    idnvt

next      a
jump      in.melt temploop #it will again transfer the call to label temploop line
variable    a loop 11   #loop parameter defined
variable    temp equal 0.3+($a-1)*0.1   #temp value will increase at rate of 0.1 from 0.3 till 1.3
variable    temp equal 0.3+(2-1)*0.1

thermo		1000
thermo_style custom step pe ke etotal press temp vol density
dump		id all atom 1000 out.dump.npt.lammpstrj
restart 100000 restartnvt1.data restartnvt2.data

fix 		intnpt all npt temp 0.4 0.4 1 iso 1 1 10
run		  100000
  update every 20 steps, delay 0 steps, check no
Step PotEng KinEng TotEng Press Temp Volume Density
500000   -7.7984687   0.44452683   -7.3539418  -0.28965184   0.29642532     3911.672    1.0225806
Averages over the last 51 of 101 rows, steps 550000 to 600000:
PotEng KinEng TotEng Press Temp Volume Density
-7.67274 0.599622 -7.07312 1.00151 0.399848 3879.92 1.03095
Loop time of 413.34 on 2 procs for 100000 steps with 4000 atoms

unfix   intnpt
undump  id

#Using Nvt to calculate the rdf and msd
compute   msd all msd average yes
compute   rdfnvt all rdf 100 1 1
fix       rdfnvt all ave/time 1000 100 100000 c_rdfnvt[*] file systemnvt.rdf mode vector
thermo    1000
thermo_style custom step pe ke etotal press temp vol c_msd[4]
dump      idnvt all atom 1000 out.dump.nvt.lammpstrj
restart   100000 restartnpt1.data restartnp2.data

fix       intnvt all nvt temp 0.4 0.4 1
run       400000
  update every 20 steps, delay 0 steps, check no
Step PotEng KinEng TotEng Press Temp Volume c_msd[4]
600000   -7.6670242   0.59597969   -7.0710446    1.0393069   0.39741915    3878.9689            0
Averages over the last 201 of 401 rows, steps 800000 to 1000000:
PotEng KinEng TotEng Press Temp Volume c_msd[4]
-7.69256 0.600229 -7.09233 0.901287 0.400253 3878.97 0.0141736
Loop time of 1676.95 on 2 procs for 400000 steps with 4000 atoms

unfix     intnvt
unfix     rdfnvt
uncompute rdfnvt
uncompute msd
undump    idnvt

next      a
jump      in.melt temploop #it will again transfer the call to label temploop line
variable    a loop 11   #loop parameter defined
variable    temp equal 0.3+($a-1)*0.1   #temp value will increase at rate of 0.1 from 0.3 till 1.3
variable    temp equal 0.3+(3-1)*0.1

thermo		1000
thermo_style custom step pe ke etotal press temp vol density
dump		id all atom 1000 out.dump.npt.lammpstrj
restart 100000 restartnvt1.data restartnvt2.data

fix 		intnpt all npt temp 0.5 0.5 1 iso 1 1 10
run		  100000
  update every 20 steps, delay 0 steps, check no
Step PotEng KinEng TotEng Press Temp Volume Density
1000000   -7.7001688   0.60543255   -7.0947362   0.86501791   0.40372263    3878.9689    1.0312019
Averages over the last 51 of 101 rows, steps 1050000 to 1100000:
PotEng KinEng TotEng Press Temp Volume Density
-7.5138 0.749638 -6.76416 0.998752 0.499884 3939.05 1.01548
Loop time of 421.76 on 2 procs for 100000 steps with 4000 atoms

unfix   intnpt
undump  id

#Using Nvt to calculate the rdf and msd
compute   msd all msd average yes
compute   rdfnvt all rdf 100 1 1
fix       rdfnvt all ave/time 1000 100 100000 c_rdfnvt[*] file systemnvt.rdf mode vector
thermo    1000
thermo_style custom step pe ke etotal press temp vol c_msd[4]
dump      idnvt all atom 1000 out.dump.nvt.lammpstrj
restart   100000 restartnpt1.data restartnp2.data

fix       intnvt all nvt temp 0.5 0.5 1
run       400000
  update every 20 steps, delay 0 steps, check no
Step PotEng KinEng TotEng Press Temp Volume c_msd[4]
1100000   -7.5019488   0.73727805   -6.7646707   0.95790017   0.49164161    3945.2548            0
Averages over the last 201 of 401 rows, steps 1300000 to 1500000:
PotEng KinEng TotEng Press Temp Volume c_msd[4]
-7.51091 0.750021 -6.76089 0.910261 0.500139 3945.25 0.0314085
Loop time of 1658.48 on 2 procs for 400000 steps with 4000 atoms

unfix     intnvt
unfix     rdfnvt
uncompute rdfnvt
uncompute msd
undump    idnvt

next      a
jump      in.melt temploop #it will again transfer the call to label temploop line
variable    a loop 11   #loop parameter defined
variable    temp equal 0.3+($a-1)*0.1   #temp value will increase at rate of 0.1 from 0.3 till 1.3
variable    temp equal 0.3+(4-1)*0.1

thermo		1000
thermo_style custom step pe ke etotal press temp vol density
dump		id all atom 1000 out.dump.npt.lammpstrj
restart 100000 restartnvt1.data restartnvt2.data

fix 		intnpt all npt temp 0.6 0.6 1 iso 1 1 10
run		  100000
  update every 20 steps, delay 0 steps, check no
Step PotEng KinEng TotEng Press Temp Volume Density
1500000   -7.5220769   0.73368109   -6.7883958   0.83848092   0.48924304    3945.2548    1.0138762
Averages over the last 51 of 101 rows, steps 1550000 to 1600000:
PotEng KinEng TotEng Press Temp Volume Density
-7.31295 0.900755 -6.41219 0.994027 0.600654 4016.36 0.995929
Loop time of 439.859 on 2 procs for 100000 steps with 4000 atoms

unfix   intnpt
undump  id

#Using Nvt to calculate the rdf and msd
compute   msd all msd average yes
compute   rdfnvt all rdf 100 1 1
fix       rdfnvt all ave/time 1000 100 100000 c_rdfnvt[*] file systemnvt.rdf mode vector
thermo    1000
thermo_style custom step pe ke etotal press temp vol c_msd[4]
dump      idnvt all atom 1000 out.dump.nvt.lammpstrj
restart   100000 restartnpt1.data restartnp2.data

fix       intnvt all nvt temp 0.6 0.6 1
run       400000
  update every 20 steps, delay 0 steps, check no
Step PotEng KinEng TotEng Press Temp Volume c_msd[4]
1600000   -7.2745522   0.90746695   -6.3670852     1.035281   0.60512925    4028.5933            0
Averages over the last 201 of 401 rows, steps 1800000 to 2000000:
PotEng KinEng TotEng Press Temp Volume c_msd[4]
-7.30149 0.899915 -6.40158 0.873879 0.600093 4028.59 0.0682691
Loop time of 1633.1 on 2 procs for 400000 steps with 4000 atoms

unfix     intnvt
unfix     rdfnvt
uncompute rdfnvt
uncompute msd
undump    idnvt

next      a
jump      in.melt temploop #it will again transfer the call to label temploop line
variable    a loop 11   #loop parameter defined
variable    temp equal 0.3+($a-1)*0.1   #temp value will increase at rate of 0.1 from 0.3 till 1.3
variable    temp equal 0.3+(5-1)*0.1

thermo		1000
thermo_style custom step pe ke etotal press temp vol density
dump		id all atom 1000 out.dump.npt.lammpstrj
restart 100000 restartnvt1.data restartnvt2.data

fix 		intnpt all npt temp 0.7 0.7 1 iso 1 1 10
run		  100000
  update every 20 steps, delay 0 steps, check no
Step PotEng KinEng TotEng Press Temp Volume Density
2000000   -7.3058178   0.89345604   -6.4123617   0.85017873   0.59578631    4028.5933   0.99290242
Averages over the last 51 of 101 rows, steps 2050000 to 2100000:
PotEng KinEng TotEng Press Temp Volume Density
-7.08602 1.04894 -6.03708 1.0006 0.699465 4107.95 0.973726
Loop time of 426.346 on 2 procs for 100000 steps with 4000 atoms

unfix   intnpt
undump  id

#Using Nvt to calculate the rdf and msd
compute   msd all msd average yes
compute   rdfnvt all rdf 100 1 1
fix       rdfnvt all ave/time 1000 100 100000 c_rdfnvt[*] file systemnvt.rdf mode vector
thermo    1000
thermo_style custom step pe ke etotal press temp vol c_msd[4]
dump      idnvt all atom 1000 out.dump.nvt.lammpstrj
restart   100000 restartnpt1.data restartnp2.data

fix       intnvt all nvt temp 0.7 0.7 1
run       400000
  update every 20 steps, delay 0 steps, check no
Step PotEng KinEng TotEng Press Temp Volume c_msd[4]
2100000   -7.0866588    1.0707337   -6.0159251    1.0797704   0.71400097    4103.2521            0
Averages over the last 201 of 401 rows, steps 2300000 to 2500000:
PotEng KinEng TotEng Press Temp Volume c_msd[4]
-7.09232 1.05037 -6.04195 1.03042 0.700419 4103.25 0.0561378
Loop time of 1717.98 on 2 procs for 400000 steps with 4000 atoms

unfix     intnvt
unfix     rdfnvt
uncompute rdfnvt
uncompute msd
undump    idnvt

next      a
jump      in.melt temploop #it will again transfer the call to label temploop line
variable    a loop 11   #loop parameter defined
variable    temp equal 0.3+($a-1)*0.1   #temp value will increase at rate of 0.1 from 0.3 till 1.3
variable    temp equal 0.3+(6-1)*0.1

thermo		1000
thermo_style custom step pe ke etotal press temp vol density
dump		id all atom 1000 out.dump.npt.lammpstrj
restart 100000 restartnvt1.data restartnvt2.data

fix 		intnpt all npt temp 0.8 0.8 1 iso 1 1 10
run		  100000
  update every 20 steps, delay 0 steps, check no
Step PotEng KinEng TotEng Press Temp Volume Density
2500000   -7.1000827    1.0487511   -6.0513316   0.98921927   0.69934227    4103.2521   0.97483653
Averages over the last 51 of 101 rows, steps 2550000 to 2600000:
PotEng KinEng TotEng Press Temp Volume Density
-6.8122 1.20254 -5.60967 0.990868 0.801892 4227.38 0.946222
Loop time of 640.427 on 2 procs for 100000 steps with 4000 atoms

unfix   intnpt
undump  id

#Using Nvt to calculate the rdf and msd
compute   msd all msd average yes
compute   rdfnvt all rdf 100 1 1
fix       rdfnvt all ave/time 1000 100 100000 c_rdfnvt[*] file systemnvt.rdf mode vector
thermo    1000
thermo_style custom step pe ke etotal press temp vol c_msd[4]
dump      idnvt all atom 1000 out.dump.nvt.lammpstrj
restart   100000 restartnpt1.data restartnp2.data

fix       intnvt all nvt temp 0.8 0.8 1
run       400000
  update every 20 steps, delay 0 steps, check no
Step PotEng KinEng TotEng Press Temp Volume c_msd[4]
2600000   -6.7683639     1.174737   -5.5936269    1.0192082   0.78335383    4242.7818            0
Averages over the last 201 of 401 rows, steps 2800000 to 3000000:
PotEng KinEng TotEng Press Temp Volume c_msd[4]
-6.78521 1.20105 -5.58416 0.94685 0.800901 4242.78 0.393232
Loop time of 2461.18 on 2 procs for 400000 steps with 4000 atoms

unfix     intnvt
unfix     rdfnvt
uncompute rdfnvt
uncompute msd
undump    idnvt

next      a
jump      in.melt temploop #it will again transfer the call to label temploop line
variable    a loop 11   #loop parameter defined
variable    temp equal 0.3+($a-1)*0.1   #temp value will increase at rate of 0.1 from 0.3 till 1.3
variable    temp equal 0.3+(7-1)*0.1

thermo		1000
thermo_style custom step pe ke etotal press temp vol density
dump		id all atom 1000 out.dump.npt.lammpstrj
restart 100000 restartnvt1.data restartnvt2.data

fix 		intnpt all npt temp 0.9 0.9 1 iso 1 1 10
run		  100000
  update every 20 steps, delay 0 steps, check no
Step PotEng KinEng TotEng Press Temp Volume Density
3000000   -6.7804649    1.2285344   -5.5519306   0.97804731   0.81922771    4242.7818   0.94277768
Averages over the last 51 of 101 rows, steps 3050000 to 3100000:
PotEng KinEng TotEng Press Temp Volume Density
-5.55406 1.34988 -4.20418 1.00916 0.900143 4909.5 0.814755
Loop time of 595.808 on 2 procs for 100000 steps with 4000 atoms

unfix   intnpt
undump  id

#Using Nvt to calculate the rdf and msd
compute   msd all msd average yes
compute   rdfnvt all rdf 100 1 1
fix       rdfnvt all ave/time 1000 100 100000 c_rdfnvt[*] file systemnvt.rdf mode vector
thermo    1000
thermo_style custom step pe ke etotal press temp vol c_msd[4]
dump      idnvt all atom 1000 out.dump.nvt.lammpstrj
restart   100000 restartnpt1.data restartnp2.data

fix       intnvt all nvt temp 0.9 0.9 1
run       400000
  update every 20 steps, delay 0 steps, check no
Step PotEng KinEng TotEng Press Temp Volume c_msd[4]
3100000   -5.5339965    1.3251024   -4.2088941     1.072112    0.8836225    4912.1546            0
Averages over the last 201 of 401 rows, steps 3300000 to 3500000:
PotEng KinEng TotEng Press Temp Volume c_msd[4]
-5.5538 1.34868 -4.20512 0.991667 0.899343 4912.15 168.295
Loop time of 2221.28 on 2 procs for 400000 steps with 4000 atoms

unfix     intnvt
unfix     rdfnvt
uncompute rdfnvt
uncompute msd
undump    idnvt

next      a
jump      in.melt temploop #it will again transfer the call to label temploop line
variable    a loop 11   #loop parameter defined
variable    temp equal 0.3+($a-1)*0.1   #temp value will increase at rate of 0.1 from 0.3 till 1.3
variable    temp equal 0.3+(8-1)*0.1

thermo		1000
thermo_style custom step pe ke etotal press temp vol density
dump		id all atom 1000 out.dump.npt.lammpstrj
restart 100000 restartnvt1.data restartnvt2.data

fix 		intnpt all npt temp 1 1 1 iso 1 1 10
run		  100000
  update every 20 steps, delay 0 steps, check no
Step PotEng KinEng TotEng Press Temp Volume Density
3500000   -5.5350104    1.3435523   -4.1914581    1.0923615   0.89592549    4912.1546   0.81430661
Averages over the last 51 of 101 rows, steps 3550000 to 3600000:
PotEng KinEng TotEng Press Temp Volume Density
-5.27028 1.49983 -3.77045 1.00841 1.00014 5115.63 0.781943
Loop time of 553.486 on 2 procs for 100000 steps with 4000 atoms

unfix   intnpt
undump  id

#Using Nvt to calculate the rdf and msd
compute   msd all msd average yes
compute   rdfnvt all rdf 100 1 1
fix       rdfnvt all ave/time 1000 100 100000 c_rdfnvt[*] file systemnvt.rdf mode vector
thermo    1000
thermo_style custom step pe ke etotal press temp vol c_msd[4]
dump      idnvt all atom 1000 out.dump.nvt.lammpstrj
restart   100000 restartnpt1.data restartnp2.data

fix       intnvt all nvt temp 1 1 1
run       400000
  update every 20 steps, delay 0 steps, check no
Step PotEng KinEng TotEng Press Temp Volume c_msd[4]
3600000   -5.3008613      1.46509   -3.8357713    1.0563843   0.97697089    5086.2218            0
Averages over the last 201 of 401 rows, steps 3800000 to 4000000:
PotEng KinEng TotEng Press Temp Volume c_msd[4]
-5.29904 1.49917 -3.79986 1.06655 0.999699 5086.22 227.317
Loop time of 1325.66 on 2 procs for 400000 steps with 4000 atoms

unfix     intnvt
unfix     rdfnvt
uncompute rdfnvt
uncompute msd
undump    idnvt

next      a
jump      in.melt temploop #it will again transfer the call to label temploop line
variable    a loop 11   #loop parameter defined
variable    temp equal 0.3+($a-1)*0.1   #temp value will increase at rate of 0.1 from 0.3 till 1.3
variable    temp equal 0.3+(9-1)*0.1

thermo		1000
thermo_style custom step pe ke etotal press temp vol density
dump		id all atom 1000 out.dump.npt.lammpstrj
restart 100000 restartnvt1.data restartnvt2.data

fix 		intnpt all npt temp 1.1 1.1 1 iso 1 1 10
run		  100000
  update every 20 steps, delay 0 steps, check no
Step PotEng KinEng TotEng Press Temp Volume Density
4000000   -5.2825743    1.4699435   -3.8126307    1.1124242   0.98020741    5086.2218   0.78643838
Averages over the last 51 of 101 rows, steps 4050000 to 4100000:
PotEng KinEng TotEng Press Temp Volume Density
-4.99077 1.65069 -3.34008 0.989988 1.10074 5346.83 0.748121
Loop time of 344.1 on 2 procs for 100000 steps with 4000 atoms

unfix   intnpt
undump  id

#Using Nvt to calculate the rdf and msd
compute   msd all msd average yes
compute   rdfnvt all rdf 100 1 1
fix       rdfnvt all ave/time 1000 100 100000 c_rdfnvt[*] file systemnvt.rdf mode vector
thermo    1000
thermo_style custom step pe ke etotal press temp vol c_msd[4]
dump      idnvt all atom 1000 out.dump.nvt.lammpstrj
restart   100000 restartnpt1.data restartnp2.data

fix       intnvt all nvt temp 1.1 1.1 1
run       400000
  update every 20 steps, delay 0 steps, check no
Step PotEng KinEng TotEng Press Temp Volume c_msd[4]
4100000    -4.967339    1.6399133   -3.3274257   0.91381781    1.0935489    5380.7933            0
Averages over the last 201 of 401 rows, steps 4300000 to 4500000:
PotEng KinEng TotEng Press Temp Volume c_msd[4]
-4.96094 1.64866 -3.31229 0.934591 1.09938 5380.79 307.893
Loop time of 1260.95 on 2 procs for 400000 steps with 4000 atoms

unfix     intnvt
unfix     rdfnvt
uncompute rdfnvt
uncompute msd
undump    idnvt

next      a
jump      in.melt temploop #it will again transfer the call to label temploop line
variable    a loop 11   #loop parameter defined
variable    temp equal 0.3+($a-1)*0.1   #temp value will increase at rate of 0.1 from 0.3 till 1.3
variable    temp equal 0.3+(10-1)*0.1

thermo		1000
thermo_style custom step pe ke etotal press temp vol density
dump		id all atom 1000 out.dump.npt.lammpstrj
restart 100000 restartnvt1.data restartnvt2.data

fix 		intnpt all npt temp 1.2 1.2 1 iso 1 1 10
run		  100000
  update every 20 steps, delay 0 steps, check no
Step PotEng KinEng TotEng Press Temp Volume Density
4500000   -4.9572704    1.6564095   -3.3008609    0.9628493    1.1045491    5380.7933   0.74338481
Averages over the last 51 of 101 rows, steps 4550000 to 4600000:
PotEng KinEng TotEng Press Temp Volume Density
-4.71235 1.8037 -2.90866 1.01116 1.20276 5595.67 0.714857
Loop time of 336.626 on 2 procs for 100000 steps with 4000 atoms

unfix   intnpt
undump  id

#Using Nvt to calculate the rdf and msd
compute   msd all msd average yes
compute   rdfnvt all rdf 100 1 1
fix       rdfnvt all ave/time 1000 100 100000 c_rdfnvt[*] file systemnvt.rdf mode vector
thermo    1000
thermo_style custom step pe ke etotal press temp vol c_msd[4]
dump      idnvt all atom 1000 out.dump.nvt.lammpstrj
restart   100000 restartnpt1.data restartnp2.data

fix       intnvt all nvt temp 1.2 1.2 1
run       400000
  update every 20 steps, delay 0 steps, check no
Step PotEng KinEng TotEng Press Temp Volume c_msd[4]
4600000   -4.7626348    1.8316262   -2.9310086    1.0095311    1.2213895    5548.0573            0
Averages over the last 201 of 401 rows, steps 4800000 to 5000000:
PotEng KinEng TotEng Press Temp Volume c_msd[4]
-4.75382 1.7981 -2.95572 1.05617 1.19903 5548.06 376.103
Loop time of 1249.1 on 2 procs for 400000 steps with 4000 atoms

unfix     intnvt
unfix     rdfnvt
uncompute rdfnvt
uncompute msd
undump    idnvt

next      a
jump      in.melt temploop #it will again transfer the call to label temploop line
variable    a loop 11   #loop parameter defined
variable    temp equal 0.3+($a-1)*0.1   #temp value will increase at rate of 0.1 from 0.3 till 1.3
variable    temp equal 0.3+(11-1)*0.1

thermo		1000
thermo_style custom step pe ke etotal press temp vol density
dump		id all atom 1000 out.dump.npt.lammpstrj
restart 100000 restartnvt1.data restartnvt2.data

fix 		intnpt all npt temp 1.3 1.3 1 iso 1 1 10
run		  100000
  update every 20 steps, delay 0 steps, check no
Step PotEng KinEng TotEng Press Temp Volume Density
5000000   -4.7618386    1.8119734   -2.9498652    1.0407056    1.2082843    5548.0573   0.72097309
Averages over the last 51 of 101 rows, steps 5050000 to 5100000:
PotEng KinEng TotEng Press Temp Volume Density
-4.4472 1.95387 -2.49333 1.01065 1.3029 5869.33 0.681532
Loop time of 328.176 on 2 procs for 100000 steps with 4000 atoms

unfix   intnpt
undump  id

#Using Nvt to calculate the rdf and msd
compute   msd all msd average yes
compute   rdfnvt all rdf 100 1 1
fix       rdfnvt all ave/time 1000 100 100000 c_rdfnvt[*] file systemnvt.rdf mode vector
thermo    1000
thermo_style custom step pe ke etotal press temp vol c_msd[4]
dump      idnvt all atom 1000 out.dump.nvt.lammpstrj
restart   100000 restartnpt1.data restartnp2.data

fix       intnvt all nvt temp 1.3 1.3 1
run       400000
  update every 20 steps, delay 0 steps, check no
Step PotEng KinEng TotEng Press Temp Volume c_msd[4]
5100000   -4.4747471    1.9575982   -2.5171489    1.0978692    1.3053918    5816.6111            0
Averages over the last 201 of 401 rows, steps 5300000 to 5500000:
PotEng KinEng TotEng Press Temp Volume c_msd[4]
-4.48676 1.95208 -2.53468 1.05548 1.30171 5816.61 473.138
Loop time of 1203.51 on 2 procs for 400000 steps with 4000 atoms

unfix     intnvt
unfix     rdfnvt
uncompute rdfnvt
uncompute msd
undump    idnvt

next      a
jump      in.melt temploop #it will again transfer the call to label temploop line
